42                                                                                                                                                                                
-1.0152329602178868e+03 frame 35   xyz file generated by TeraChem
     C    11.8215752362    2.0857189929    3.8780067731
     C    11.3488174525    0.1158701361    5.0467061290
     C    11.0766217159    0.8334981997    6.1775152357
     C    11.6977010403    2.1375535941    6.2700230237
     C    12.8550151047    2.4892554130    2.8549023218
     C    10.4186993017    2.5485291985    3.5251225718
     C    10.2529009431    0.2009274176    7.2828045296
     C    10.9171231585   -0.9789006277    7.9778143171
     C    10.7080004326   -0.8619308433    9.4153810610
     C    10.0174474143    0.2495568851    9.6655894474
     C     9.7533025918    1.0923977988    8.4542228520
     C     7.3635862242    0.5418314976    8.3184467131
     C     6.3271923410    0.6375052109    9.4307161669
     C     8.2362346563    2.6416361091    7.4062192729
     C     6.9714002751    3.4603581292    7.6056918018
     N     8.3912551670    1.5821890857    8.3983357948
     O    11.1480153227   -1.1731663475    4.9031445654
     O    11.8395793895    2.8127517132    7.2683405066
     O    12.2451215832    2.6243732025    5.1154296965
     O    11.8661659606    0.6497467962    3.9489262315
     O    11.4700363918   -1.8991474973    7.3919229916
     H    11.2377170909   -1.6078837122    5.7997293789
     H     9.3673414133   -0.2332707735    6.8126778803
     H    11.0492317014   -1.5976628807   10.1235927020
     H     9.6741739160    0.5720348554   10.6360628701
     H    10.4042570249    1.9652663869    8.5333277287
     H     6.9463683798    3.8804497699    8.6113102644
     H     6.9431263945    4.2777456851    6.8868041365
     H     9.1033825036    3.2985573085    7.4970497611
     H     8.2487100913    2.2344578260    6.3849959500
     H     6.8716783141    0.5773220933    7.3434406105
     H     5.8291028433    1.6050085968    9.4236870493
     H     7.8330439706   -0.4392333594    8.3769268453
     H     6.8029164412    0.5189259006   10.4032464433
     H     5.5721347765   -0.1394555520    9.3208382344
     H    10.1333795163    2.1456889502    2.5597910212
     H     9.6981039321    2.2292718533    4.2708451395
     H    10.4114023203    3.6323628744    3.4773013562
     H    13.8313143354    2.1203644111    3.1616531946
     H    12.8874269354    3.5722704415    2.7864468696
     H    12.5980960867    2.0732723408    1.8860052110
     H     6.0728764730    2.8642307674    7.4587209383
