42
Properties=species:S:1:pos:R:3 i=1460 time=730.0 E=-138.079173012 pbc="F F F"
C        9.19437237      -1.32866173       4.81928493
C        8.38475940       0.79276392       5.84243504
C        9.73007544       1.29728151       5.93740688
C       10.75816138       0.56486264       5.24340854
C        9.42222035      -2.45746254       5.77261356
C        8.72808830      -1.59553467       3.43213184
C       10.08476998       2.50674410       6.51701807
C        9.20059960       3.44782627       7.21964953
C        9.72447268       4.17688485       8.31073862
C       10.83301279       3.52017092       8.74564401
C       10.99496186       2.15354113       8.36106016
C       13.34565301       2.29123166       7.63258920
C       14.65459982       2.15598303       8.40043694
C       12.40380552       0.01365657       8.19465118
C       11.36412636      -0.69627217       9.06333133
N       12.24182754       1.55045734       8.36721877
O        7.27604491       1.29016495       6.08758228
O       11.93910433       0.87858780       5.13569242
O       10.45675008      -0.59063161       4.58039259
O        8.16045490      -0.45795025       5.32094041
O        7.89198229       3.59430471       6.85860680
H        7.38859952       2.72472354       6.54144733
H       11.09837389       2.99536729       6.27244743
H        9.36107302       5.07340780       8.76437132
H       11.57745384       3.96417849       9.52852526
H       10.15049665       1.39769982       8.54302874
H       11.71706847      -1.38677423       9.85002168
H       10.77764093      -0.04487821       9.70263420
H       12.10481508      -0.19780749       7.05272306
H       13.43782722      -0.25006459       8.51842932
H       13.40079427       1.78279189       6.65182337
H       14.93889461       3.06239098       8.94751598
H       13.11521426       3.30441886       7.28751802
H       15.55296644       1.84451670       7.76884424
H       14.61769983       1.40361593       9.15395441
H        7.57905821      -1.62135362       3.40705793
H        8.90902545      -0.78413820       2.67369999
H        9.07463269      -2.56306139       3.01495460
H        9.37432791      -2.11541768       6.80214512
H       10.47058119      -2.82698509       5.71171490
H        8.69456195      -3.29176629       5.61507189
H       10.61583903      -1.28353699       8.42663350
