42
-1.0152235719040643e+03 frame 268   xyz file generated by TeraChem                                                                                                                
     C    12.6490880016    2.0617142136    4.2053755706
     C    12.8231520548    0.6571930168    6.1359793900
     C    11.3986114129    0.8209470323    6.2822941465
     C    10.7582676263    1.9688651908    5.6584519335
     C    13.5004329793    3.1692103998    3.6323894468
     C    12.2212621582    1.0339446222    3.1707914089
     C    10.5868966878    0.0861816271    7.1557338148
     C    10.7955151413   -0.9733946789    8.0342007500
     C     9.7709089407   -1.3472130771    8.9182488870
     C     8.7028573782   -0.5479404372    9.3004001346
     C     8.7484870939    0.8381917866    9.1706287408
     C     6.3522632343    1.2162618646    9.2387473769
     C     5.8758839448    0.7850765799    7.8596627363
     C     7.9810200000    3.1083291727    9.0462078061
     C     8.2019151016    3.8245913791   10.3672756163
     N     7.7367857781    1.6752965458    9.2106338167
     O    13.5444003154   -0.0928369318    6.7880800103
     O     9.6404159530    2.3761435512    5.9207884379
     O    11.5069939613    2.6883161408    4.7813391763
     O    13.4397435214    1.4389960878    5.2196328958
     O    11.9257509815   -1.7287927144    8.0786894154
     H    12.6459673511   -1.2385231831    7.6043287855
     H     9.5562699045    0.4058052541    7.0941970981
     H     9.8453618838   -2.3467958879    9.3349786771
     H     7.8341195852   -1.0165026452    9.7296977612
     H     9.7177116405    1.3015651511    9.0535007556
     H     8.3433671266    4.8863256542   10.1949630368
     H     7.3534215306    3.6974119751   11.0305647385
     H     8.8361912358    3.2264567253    8.3833975126
     H     7.1272571621    3.5209402108    8.5211960350
     H     6.2642500020    0.4084285207    9.9521647255
     H     4.8458017032    0.4513224854    7.9030247553
     H     5.7540564596    2.0326865342    9.6172566441
     H     6.4831277977   -0.0331944802    7.4822286189
     H     5.9427723483    1.6061247637    7.1517663893
     H    11.6164663675    0.2501763327    3.6277927296
     H    11.6360358744    1.5245164045    2.3962867260
     H    13.1033596309    0.5804218107    2.7237246299
     H    14.4081804825    2.7488804723    3.2048367469
     H    13.7658337437    3.8714020985    4.4225538347
     H    12.9450647345    3.6938384114    2.8581929022
     H     9.0859620751    3.4397257224   10.8660067464
